test/data/dist/ShortCircuitCases/ieee123_VLN_Node.Txt

LINE-GROUND and LINE-LINE VOLTAGES BY BUS & NODE

Bus       Node    VLN (kV)   Angle      pu     Base kV    Node-Node   VLL (kV)  Angle      pu

SOURCEBUS 1       32.745 /_   -0.5    13.634     4.160        1-2     56.789 /_   29.8    13.651
   -      2       32.959 /_ -120.1    13.723     4.160        2-3     57.312 /_  -90.3    13.777
   -      3       33.047 /_  119.4     13.76     4.160        3-1     56.942 /_  149.3    13.688
150 ..... 1       1.3054 /_  -39.4    0.5435     4.160        1-2     2.1993 /_   -8.7   0.52868
   -      2       1.2671 /_ -156.9   0.52757     4.160        2-3     2.2522 /_ -126.3   0.54139
   -      3       1.3288 /_   82.7   0.55325     4.160        3-1     2.3056 /_  111.4   0.55424
150R .... 1       1.4357 /_  -39.4   0.59777     4.160        1-2     2.4189 /_   -8.7   0.58146
   -      2       1.3936 /_ -156.9   0.58023     4.160        2-3     2.4771 /_ -126.3   0.59545
   -      3       1.4615 /_   82.7   0.60849     4.160        3-1     2.5358 /_  111.4   0.60958
149 ..... 1       1.4357 /_  -39.4   0.59776     4.160        1-2     2.4189 /_   -8.7   0.58146
   -      2       1.3936 /_ -156.9   0.58023     4.160        2-3      2.477 /_ -126.3   0.59544
   -      3       1.4615 /_   82.7   0.60849     4.160        3-1     2.5358 /_  111.4   0.60958
1 ....... 1       1.1268 /_  -38.2   0.46915     4.160        1-2     1.9326 /_   -7.5   0.46456
   -      2       1.1224 /_ -156.7   0.46732     4.160        2-3     1.9944 /_ -126.7   0.47941
   -      3       1.1666 /_   82.1    0.4857     4.160        3-1     1.9895 /_  111.4   0.47824
2 ....... 2       1.1224 /_ -156.7   0.46732     4.160
3 ....... 3       1.1666 /_   82.1    0.4857     4.160
7 ....... 1      0.89563 /_  -36.8    0.3729     4.160        1-2     1.5687 /_   -6.1   0.37708
   -      2      0.91902 /_ -156.4   0.38264     4.160        2-3     1.6324 /_ -127.0    0.3924
   -      3      0.94551 /_   81.4   0.39367     4.160        3-1     1.5797 /_  111.4   0.37974
4 ....... 3       1.1666 /_   82.1    0.4857     4.160
5 ....... 3       1.1666 /_   82.1    0.4857     4.160
6 ....... 3       1.1666 /_   82.1    0.4857     4.160
8 ....... 1      0.74202 /_  -35.3   0.30895     4.160        1-2     1.3268 /_   -4.8   0.31894
   -      2      0.78345 /_ -156.1    0.3262     4.160        2-3     1.3912 /_ -127.4   0.33441
   -      3      0.79826 /_   80.7   0.33236     4.160        3-1     1.3065 /_  111.4   0.31407
12 ...... 2      0.78345 /_ -156.1    0.3262     4.160
9 ....... 1      0.74202 /_  -35.3   0.30895     4.160
13 ...... 1      0.51068 /_  -31.8   0.21263     4.160        1-2    0.96246 /_   -1.9   0.23136
   -      2      0.57875 /_ -155.8   0.24097     4.160        2-3     1.0274 /_ -128.6   0.24697
   -      3      0.57652 /_   78.6   0.24004     4.160        3-1    0.89367 /_  111.0   0.21482
9R ...... 1      0.80695 /_  -35.3   0.33598     4.160
14 ...... 1      0.80695 /_  -35.3   0.33598     4.160
34 ...... 3      0.57652 /_   78.6   0.24004     4.160
18 ...... 1      0.02955 /_  -91.9  0.012303     4.160        1-2   0.052208 /_  -63.4   0.01255
   -      2     0.029783 /_  144.8    0.0124     4.160        2-3   0.050047 /_  175.0  0.012031
   -      3     0.028549 /_   26.7  0.011887     4.160        3-1   0.049951 /_   58.0  0.012008
11 ...... 1      0.80695 /_  -35.3   0.33598     4.160
10 ...... 1      0.80695 /_  -35.3   0.33598     4.160
15 ...... 3      0.57652 /_   78.6   0.24004     4.160
16 ...... 3      0.57652 /_   78.6   0.24004     4.160
17 ...... 3      0.57652 /_   78.6   0.24004     4.160
19 ...... 1      0.02955 /_  -91.9  0.012303     4.160
21 ...... 1     0.029772 /_  -85.2  0.012396     4.160        1-2   0.052214 /_  -56.3  0.012551
   -      2     0.029823 /_  152.5  0.012417     4.160        2-3   0.050778 /_ -176.6  0.012206
   -      3     0.029475 /_   34.7  0.012272     4.160        3-1   0.051264 /_   64.9  0.012323
20 ...... 1      0.02955 /_  -91.9  0.012303     4.160
22 ...... 2     0.029823 /_  152.5  0.012417     4.160
23 ...... 1     0.030264 /_  -79.7  0.012601     4.160        1-2   0.052825 /_  -50.5  0.012698
   -      2     0.030256 /_  158.7  0.012597     4.160        2-3   0.052178 /_ -170.0  0.012543
   -      3     0.030656 /_   40.8  0.012764     4.160        3-1   0.052901 /_   70.4  0.012717
24 ...... 3     0.030656 /_   40.8  0.012764     4.160
25 ...... 1     0.031111 /_  -73.9  0.012953     4.160        1-2   0.054109 /_  -44.3  0.013007
   -      2     0.031133 /_  165.3  0.012962     4.160        2-3   0.054479 /_ -163.2  0.013096
   -      3     0.032333 /_   47.0  0.013462     4.160        3-1   0.055218 /_   75.9  0.013273
25R ..... 1     0.033833 /_  -73.9  0.014087     4.160
   -      3     0.034758 /_   47.0  0.014472     4.160        3-1   0.059696 /_   76.1   0.01435
26 ...... 1     0.033833 /_  -73.9  0.014087     4.160
   -      3     0.034758 /_   47.0  0.014472     4.160        3-1   0.059696 /_   76.1   0.01435
28 ...... 1     0.031915 /_  -70.0  0.013288     4.160        1-2   0.055422 /_  -40.0  0.013323
   -      2     0.032015 /_  169.8   0.01333     4.160        2-3   0.056599 /_ -158.6  0.013606
   -      3     0.033769 /_   51.1   0.01406     4.160        3-1   0.057206 /_   79.7  0.013751
27 ...... 1     0.033833 /_  -73.9  0.014087     4.160
   -      3     0.034758 /_   47.0  0.014472     4.160        3-1   0.059696 /_   76.1   0.01435
31 ...... 3     0.034758 /_   47.0  0.014472     4.160
33 ...... 1     0.033833 /_  -73.9  0.014087     4.160
29 ...... 1     0.031915 /_  -70.0  0.013288     4.160        1-2   0.055422 /_  -40.0  0.013323
   -      2     0.032015 /_  169.8   0.01333     4.160        2-3   0.056599 /_ -158.6  0.013606
   -      3     0.033769 /_   51.1   0.01406     4.160        3-1   0.057206 /_   79.7  0.013751
30 ...... 1     0.031915 /_  -70.0  0.013288     4.160        1-2   0.055422 /_  -40.0  0.013323
   -      2     0.032015 /_  169.8   0.01333     4.160        2-3   0.056599 /_ -158.6  0.013606
   -      3     0.033769 /_   51.1   0.01406     4.160        3-1   0.057206 /_   79.7  0.013751
250 ..... 1     0.031915 /_  -70.0  0.013288     4.160        1-2   0.055422 /_  -40.0  0.013323
   -      2     0.032015 /_  169.8   0.01333     4.160        2-3   0.056599 /_ -158.6  0.013606
   -      3     0.033769 /_   51.1   0.01406     4.160        3-1   0.057206 /_   79.7  0.013751
32 ...... 3     0.034758 /_   47.0  0.014472     4.160
35 ...... 1     0.047685 /_  -39.2  0.019854     4.160        1-2   0.088107 /_  -10.6  0.021179
   -      2     0.051543 /_ -164.4   0.02146     4.160        2-3   0.085146 /_ -135.4  0.020468
   -      3     0.047216 /_   76.6  0.019659     4.160        3-1   0.080377 /_  108.9  0.019322
36 ...... 1     0.047685 /_  -39.2  0.019854     4.160        1-2   0.088107 /_  -10.6  0.021179
   -      2     0.051543 /_ -164.4   0.02146     4.160
40 ...... 1     0.070651 /_  -28.2  0.029416     4.160        1-2    0.12443 /_    0.9   0.02991
   -      2     0.071496 /_ -150.3  0.029768     4.160        2-3    0.12411 /_ -121.1  0.029834
   -      3     0.070895 /_   88.4  0.029518     4.160        3-1    0.12039 /_  120.1   0.02894
37 ...... 1     0.047685 /_  -39.2  0.019854     4.160
38 ...... 2     0.051543 /_ -164.4   0.02146     4.160
39 ...... 2     0.051543 /_ -164.4   0.02146     4.160
41 ...... 3     0.070895 /_   88.4  0.029518     4.160
42 ...... 1     0.094938 /_  -22.6  0.039528     4.160        1-2    0.16349 /_    7.2  0.039302
   -      2      0.09383 /_ -142.7  0.039067     4.160        2-3    0.16702 /_ -113.9   0.04015
   -      3     0.096062 /_   94.2  0.039996     4.160        3-1    0.16268 /_  125.6  0.039107
43 ...... 2      0.09383 /_ -142.7  0.039067     4.160
44 ...... 1      0.11476 /_  -19.9   0.04778     4.160        1-2    0.19563 /_   10.3  0.047026
   -      2      0.11247 /_ -138.8  0.046826     4.160        2-3    0.20253 /_ -110.4  0.048685
   -      3      0.11662 /_   97.0  0.048557     4.160        3-1    0.19718 /_  128.2  0.047398
45 ...... 1      0.11476 /_  -19.9   0.04778     4.160
47 ...... 1      0.13978 /_  -17.6  0.058198     4.160        1-2    0.23638 /_   13.0  0.056821
   -      2      0.13626 /_ -135.4  0.056735     4.160        2-3    0.24764 /_ -107.4  0.059529
   -      3      0.14259 /_   99.3  0.059368     4.160        3-1     0.2407 /_  130.5  0.057861
46 ...... 1      0.11476 /_  -19.9   0.04778     4.160
48 ...... 1      0.14163 /_  -16.1  0.058969     4.160        1-2    0.24002 /_   14.5  0.057698
   -      2      0.13845 /_ -134.1  0.057643     4.160        2-3    0.25025 /_ -106.1  0.060156
   -      3      0.14349 /_  100.8  0.059744     4.160        3-1    0.24298 /_  132.1  0.058409
49 ...... 1        0.161 /_  -17.2  0.067036     4.160        1-2    0.27607 /_   13.1  0.066363
   -      2      0.15924 /_ -136.3  0.066302     4.160        2-3    0.28636 /_ -108.0  0.068836
   -      3      0.16452 /_   99.3  0.068498     4.160        3-1    0.27687 /_  130.7  0.066556
50 ...... 1      0.18224 /_  -16.9  0.075876     4.160        1-2    0.31576 /_   13.1  0.075904
   -      2      0.18225 /_ -137.0   0.07588     4.160        2-3     0.3251 /_ -108.5   0.07815
   -      3      0.18645 /_   99.3  0.077628     4.160        3-1    0.31305 /_  130.8  0.075252
51 ...... 1      0.20347 /_  -16.6  0.084718     4.160        1-2    0.35545 /_   13.1  0.085445
   -      2      0.20527 /_ -137.5  0.085466     4.160        2-3    0.36386 /_ -108.8  0.087467
   -      3      0.20837 /_   99.3  0.086758     4.160        3-1    0.34922 /_  130.9  0.083948
151 ..... 1      0.24596 /_  -16.3   0.10241     4.160        1-2    0.43484 /_   13.1   0.10453
   -      2      0.25135 /_ -138.2   0.10465     4.160        2-3    0.44142 /_ -109.4   0.10611
   -      3      0.25223 /_   99.3   0.10502     4.160        3-1    0.42158 /_  131.1   0.10134
52 ...... 1      0.48448 /_  -28.6   0.20172     4.160        1-2    0.91743 /_    0.3   0.22054
   -      2      0.54627 /_ -154.2   0.22744     4.160        2-3    0.95778 /_ -126.9   0.23024
   -      3      0.53475 /_   81.0   0.22265     4.160        3-1    0.83335 /_  114.2   0.20032
53 ...... 1      0.47199 /_  -26.9   0.19652     4.160        1-2    0.89547 /_    1.5   0.21526
   -      2      0.53018 /_ -153.4   0.22075     4.160        2-3    0.92332 /_ -126.0   0.22195
   -      3      0.51425 /_   82.3   0.21411     4.160        3-1    0.80427 /_  116.0   0.19333
54 ...... 1      0.46441 /_  -25.7   0.19336     4.160        1-2    0.88195 /_    2.3   0.21201
   -      2      0.52019 /_ -152.9   0.21659     4.160        2-3    0.90192 /_ -125.4   0.21681
   -      3      0.50159 /_   83.2   0.20884     4.160        3-1    0.78651 /_  117.2   0.18906
55 ...... 1      0.46441 /_  -25.7   0.19336     4.160        1-2    0.88195 /_    2.3   0.21201
   -      2      0.52019 /_ -152.9   0.21659     4.160        2-3    0.90192 /_ -125.4   0.21681
   -      3      0.50159 /_   83.2   0.20884     4.160        3-1    0.78651 /_  117.2   0.18906
57 ...... 1      0.44072 /_  -23.2    0.1835     4.160        1-2     0.8359 /_    4.8   0.20094
   -      2      0.49271 /_ -150.3   0.20514     4.160        2-3    0.85113 /_ -123.0    0.2046
   -      3      0.47101 /_   85.7   0.19611     4.160        3-1    0.74201 /_  119.9   0.17837
56 ...... 1      0.46441 /_  -25.7   0.19336     4.160        1-2    0.88195 /_    2.3   0.21201
   -      2      0.52019 /_ -152.9   0.21659     4.160        2-3    0.90192 /_ -125.4   0.21681
   -      3      0.50159 /_   83.2   0.20884     4.160        3-1    0.78651 /_  117.2   0.18906
58 ...... 2      0.49271 /_ -150.3   0.20514     4.160
60 ...... 1      0.39335 /_  -16.9   0.16377     4.160        1-2    0.74368 /_   11.2   0.17877
   -      2       0.4378 /_ -143.7   0.18228     4.160        2-3    0.74829 /_ -116.8   0.17988
   -      3      0.40909 /_   92.1   0.17033     4.160        3-1    0.65337 /_  126.8   0.15706
59 ...... 2      0.49271 /_ -150.3   0.20514     4.160
61 ...... 1      0.39773 /_  -16.1    0.1656     4.160        1-2    0.74912 /_   12.0   0.18008
   -      2       0.4397 /_ -142.9   0.18307     4.160        2-3    0.75201 /_ -115.9   0.18077
   -      3      0.41189 /_   93.1   0.17149     4.160        3-1    0.65988 /_  127.8   0.15862
62 ...... 1      0.39335 /_  -16.9   0.16377     4.160        1-2    0.74368 /_   11.2   0.17877
   -      2       0.4378 /_ -143.7   0.18228     4.160        2-3    0.74829 /_ -116.8   0.17988
   -      3      0.40909 /_   92.1   0.17033     4.160        3-1    0.65337 /_  126.8   0.15706
63 ...... 1      0.39335 /_  -16.9   0.16377     4.160        1-2    0.74368 /_   11.2   0.17877
   -      2       0.4378 /_ -143.7   0.18228     4.160        2-3    0.74829 /_ -116.8   0.17988
   -      3      0.40909 /_   92.1   0.17033     4.160        3-1    0.65337 /_  126.8   0.15706
64 ...... 1      0.39335 /_  -16.9   0.16377     4.160        1-2    0.74368 /_   11.2   0.17877
   -      2       0.4378 /_ -143.7   0.18228     4.160        2-3    0.74829 /_ -116.8   0.17988
   -      3      0.40909 /_   92.1   0.17033     4.160        3-1    0.65337 /_  126.8   0.15706
65 ...... 1      0.39335 /_  -16.9   0.16377     4.160        1-2    0.74368 /_   11.2   0.17877
   -      2       0.4378 /_ -143.7   0.18228     4.160        2-3    0.74829 /_ -116.8   0.17988
   -      3      0.40909 /_   92.1   0.17033     4.160        3-1    0.65337 /_  126.8   0.15706
66 ...... 1      0.39335 /_  -16.9   0.16377     4.160        1-2    0.74368 /_   11.2   0.17877
   -      2       0.4378 /_ -143.7   0.18228     4.160        2-3    0.74829 /_ -116.8   0.17988
   -      3      0.40909 /_   92.1   0.17033     4.160        3-1    0.65337 /_  126.8   0.15706
67 ...... 1      0.41209 /_  -15.0   0.17158     4.160        1-2     0.7694 /_   13.0   0.18495
   -      2      0.44942 /_ -141.5   0.18712     4.160        2-3     0.7685 /_ -113.9   0.18474
   -      3      0.42444 /_   95.4   0.17672     4.160        3-1    0.68698 /_  129.6   0.16514
68 ...... 1      0.41209 /_  -15.0   0.17158     4.160
72 ...... 1      0.41605 /_  -13.6   0.17323     4.160        1-2    0.77758 /_   14.4   0.18692
   -      2      0.45425 /_ -140.2   0.18913     4.160        2-3    0.77466 /_ -112.7   0.18622
   -      3      0.42642 /_   96.7   0.17754     4.160        3-1    0.69125 /_  131.0   0.16617
97 ...... 1      0.39424 /_  -14.5   0.16414     4.160        1-2     0.7335 /_   13.6   0.17632
   -      2      0.42811 /_ -140.7   0.17825     4.160        2-3    0.73248 /_ -113.1   0.17608
   -      3        0.405 /_   96.2   0.16862     4.160        3-1    0.65766 /_  130.3   0.15809
69 ...... 1      0.41209 /_  -15.0   0.17158     4.160
70 ...... 1      0.41209 /_  -15.0   0.17158     4.160
71 ...... 1      0.41209 /_  -15.0   0.17158     4.160
73 ...... 3      0.42642 /_   96.7   0.17754     4.160
76 ...... 1      0.41909 /_  -12.6   0.17449     4.160        1-2    0.78381 /_   15.4   0.18842
   -      2       0.4579 /_ -139.2   0.19065     4.160        2-3    0.77936 /_ -111.9   0.18735
   -      3      0.42798 /_   97.6   0.17819     4.160        3-1    0.69462 /_  132.1   0.16698
74 ...... 3      0.42642 /_   96.7   0.17754     4.160
75 ...... 3      0.42642 /_   96.7   0.17754     4.160
77 ...... 1      0.42096 /_  -12.0   0.17527     4.160        1-2     0.7876 /_   16.0   0.18933
   -      2      0.46024 /_ -138.6   0.19162     4.160        2-3    0.78353 /_ -111.3   0.18835
   -      3      0.43037 /_   98.2   0.17919     4.160        3-1    0.69806 /_  132.7    0.1678
86 ...... 1      0.42613 /_  -10.3   0.17742     4.160        1-2    0.79823 /_   17.6   0.19188
   -      2      0.46635 /_ -137.1   0.19417     4.160        2-3    0.79012 /_ -109.9   0.18993
   -      3      0.43155 /_   99.7   0.17968     4.160        3-1    0.70244 /_  134.5   0.16886
78 ...... 1      0.42143 /_  -11.8   0.17547     4.160        1-2    0.78856 /_   16.1   0.18956
   -      2      0.46083 /_ -138.5   0.19187     4.160        2-3    0.78459 /_ -111.1    0.1886
   -      3      0.43097 /_   98.3   0.17944     4.160        3-1    0.69893 /_  132.8   0.16801
79 ...... 1      0.42251 /_  -11.5   0.17592     4.160        1-2    0.79074 /_   16.5   0.19008
   -      2      0.46218 /_ -138.1   0.19243     4.160        2-3    0.78699 /_ -110.8   0.18918
   -      3      0.43234 /_   98.7   0.18001     4.160        3-1     0.7009 /_  133.1   0.16849
80 ...... 1      0.42143 /_  -11.8   0.17547     4.160        1-2    0.78856 /_   16.1   0.18956
   -      2      0.46083 /_ -138.5   0.19187     4.160        2-3    0.78459 /_ -111.1    0.1886
   -      3      0.43097 /_   98.3   0.17944     4.160        3-1    0.69893 /_  132.8   0.16801
81 ...... 1      0.42143 /_  -11.8   0.17547     4.160        1-2    0.78856 /_   16.1   0.18956
   -      2      0.46083 /_ -138.5   0.19187     4.160        2-3    0.78459 /_ -111.1    0.1886
   -      3      0.43097 /_   98.3   0.17944     4.160        3-1    0.69893 /_  132.8   0.16801
82 ...... 1      0.42143 /_  -11.8   0.17547     4.160        1-2    0.78856 /_   16.1   0.18956
   -      2      0.46083 /_ -138.5   0.19187     4.160        2-3    0.78459 /_ -111.1    0.1886
   -      3      0.43097 /_   98.3   0.17944     4.160        3-1    0.69893 /_  132.8   0.16801
84 ...... 3      0.43097 /_   98.3   0.17944     4.160
83 ...... 1      0.42143 /_  -11.8   0.17547     4.160        1-2    0.78856 /_   16.1   0.18956
   -      2      0.46083 /_ -138.5   0.19187     4.160        2-3    0.78459 /_ -111.1    0.1886
   -      3      0.43097 /_   98.3   0.17944     4.160        3-1    0.69893 /_  132.8   0.16801
85 ...... 3      0.43097 /_   98.3   0.17944     4.160
87 ...... 1      0.42982 /_   -8.9   0.17896     4.160        1-2    0.80577 /_   19.0   0.19369
   -      2      0.47103 /_ -135.7   0.19612     4.160        2-3    0.79844 /_ -108.5   0.19193
   -      3      0.43636 /_  101.1   0.18168     4.160        3-1    0.70937 /_  135.8   0.17052
88 ...... 1      0.42982 /_   -8.9   0.17896     4.160
89 ...... 1       0.4322 /_   -8.0   0.17995     4.160        1-2    0.81061 /_   19.9   0.19486
   -      2      0.47402 /_ -134.9   0.19736     4.160        2-3    0.80376 /_ -107.7   0.19321
   -      3      0.43943 /_  101.9   0.18296     4.160        3-1     0.7138 /_  136.6   0.17159
90 ...... 2      0.47402 /_ -134.9   0.19736     4.160
91 ...... 1      0.43422 /_   -7.4   0.18079     4.160        1-2     0.8147 /_   20.6   0.19584
   -      2      0.47654 /_ -134.2   0.19841     4.160        2-3    0.80825 /_ -107.0   0.19429
   -      3        0.442 /_  102.6   0.18403     4.160        3-1    0.71752 /_  137.3   0.17248
92 ...... 3        0.442 /_  102.6   0.18403     4.160
93 ...... 1       0.4363 /_   -6.7   0.18166     4.160        1-2     0.8189 /_   21.2   0.19685
   -      2      0.47912 /_ -133.5   0.19949     4.160        2-3    0.81284 /_ -106.3   0.19539
   -      3      0.44464 /_  103.2   0.18513     4.160        3-1    0.72134 /_  137.9    0.1734
94 ...... 1       0.4363 /_   -6.7   0.18166     4.160
95 ...... 1      0.43916 /_   -5.8   0.18285     4.160        1-2    0.82469 /_   22.1   0.19824
   -      2      0.48266 /_ -132.7   0.20096     4.160        2-3    0.81914 /_ -105.4   0.19691
   -      3      0.44825 /_  104.1   0.18663     4.160        3-1    0.72657 /_  138.7   0.17466
96 ...... 2      0.48266 /_ -132.7   0.20096     4.160
98 ...... 1      0.39583 /_  -14.0   0.16481     4.160        1-2    0.73673 /_   14.1    0.1771
   -      2      0.43001 /_ -140.3   0.17904     4.160        2-3    0.73499 /_ -112.7   0.17668
   -      3      0.40593 /_   96.7   0.16901     4.160        3-1    0.65956 /_  130.8   0.15855
99 ...... 1      0.39908 /_  -13.1   0.16616     4.160        1-2    0.74332 /_   15.0   0.17868
   -      2      0.43388 /_ -139.4   0.18065     4.160        2-3    0.74013 /_ -111.9   0.17792
   -      3      0.40785 /_   97.5   0.16981     4.160        3-1    0.66351 /_  131.8    0.1595
100 ..... 1       0.4009 /_  -12.6   0.16692     4.160        1-2    0.74699 /_   15.5   0.17957
   -      2      0.43603 /_ -138.9   0.18155     4.160        2-3    0.74299 /_ -111.5    0.1786
   -      3      0.40894 /_   98.0   0.17026     4.160        3-1    0.66574 /_  132.3   0.16003
450 ..... 1       0.4009 /_  -12.6   0.16692     4.160        1-2    0.74699 /_   15.5   0.17957
   -      2      0.43603 /_ -138.9   0.18155     4.160        2-3    0.74299 /_ -111.5    0.1786
   -      3      0.40894 /_   98.0   0.17026     4.160        3-1    0.66574 /_  132.3   0.16003
197 ..... 1      0.39424 /_  -14.5   0.16414     4.160        1-2     0.7335 /_   13.6   0.17632
   -      2      0.42811 /_ -140.7   0.17825     4.160        2-3    0.73248 /_ -113.1   0.17608
   -      3        0.405 /_   96.2   0.16862     4.160        3-1    0.65766 /_  130.3   0.15809
101 ..... 1      0.37497 /_  -14.4   0.15612     4.160        1-2    0.69474 /_   13.8     0.167
   -      2      0.40514 /_ -140.3   0.16868     4.160        2-3    0.69429 /_ -112.6    0.1669
   -      3      0.38478 /_   96.7   0.16021     4.160        3-1    0.62671 /_  130.6   0.15065
102 ..... 3      0.38478 /_   96.7   0.16021     4.160
105 ..... 1      0.35378 /_  -14.3    0.1473     4.160        1-2    0.65211 /_   14.0   0.15676
   -      2      0.37991 /_ -139.7   0.15818     4.160        2-3    0.65237 /_ -111.9   0.15682
   -      3      0.36258 /_   97.3   0.15096     4.160        3-1    0.59268 /_  131.0   0.14247
103 ..... 3      0.38478 /_   96.7   0.16021     4.160
104 ..... 3      0.38478 /_   96.7   0.16021     4.160
106 ..... 2      0.37991 /_ -139.7   0.15818     4.160
108 ..... 1      0.32874 /_  -14.2   0.13687     4.160        1-2    0.60175 /_   14.4   0.14465
   -      2      0.35014 /_ -139.0   0.14578     4.160        2-3    0.60295 /_ -111.0   0.14494
   -      3       0.3364 /_   98.2   0.14006     4.160        3-1    0.55251 /_  131.6   0.13282
107 ..... 2      0.37991 /_ -139.7   0.15818     4.160
109 ..... 1      0.32874 /_  -14.2   0.13687     4.160
300 ..... 1      0.24596 /_  -16.3   0.10241     4.160        1-2    0.43484 /_   13.1   0.10453
   -      2      0.25135 /_ -138.2   0.10465     4.160        2-3    0.44142 /_ -109.4   0.10611
   -      3      0.25223 /_   99.3   0.10502     4.160        3-1    0.42158 /_  131.1   0.10134
110 ..... 1      0.32874 /_  -14.2   0.13687     4.160
111 ..... 1      0.32874 /_  -14.2   0.13687     4.160
112 ..... 1      0.32874 /_  -14.2   0.13687     4.160
113 ..... 1      0.32874 /_  -14.2   0.13687     4.160
114 ..... 1      0.32874 /_  -14.2   0.13687     4.160
135 ..... 1     0.029545 /_  -91.9  0.012301     4.160        1-2   0.052199 /_  -63.4  0.012548
   -      2     0.029777 /_  144.8  0.012398     4.160        2-3   0.050039 /_  175.0  0.012029
   -      3     0.028544 /_   26.7  0.011885     4.160        3-1   0.049943 /_   58.0  0.012005
152 ..... 1      0.51068 /_  -31.8   0.21263     4.160        1-2    0.96246 /_   -1.9   0.23136
   -      2      0.57875 /_ -155.8   0.24097     4.160        2-3     1.0274 /_ -128.6   0.24697
   -      3      0.57652 /_   78.6   0.24004     4.160        3-1    0.89367 /_  111.0   0.21482
160R .... 1       0.4325 /_  -16.9   0.18007     4.160        1-2    0.81275 /_   11.1   0.19537
   -      2      0.47588 /_ -143.7   0.19814     4.160        2-3    0.81779 /_ -116.7   0.19659
   -      3      0.44974 /_   92.1   0.18725     4.160        3-1    0.71834 /_  126.8   0.17268
160 ..... 1      0.39335 /_  -16.9   0.16377     4.160        1-2    0.74368 /_   11.2   0.17877
   -      2       0.4378 /_ -143.7   0.18228     4.160        2-3    0.74829 /_ -116.8   0.17988
   -      3      0.40909 /_   92.1   0.17033     4.160        3-1    0.65337 /_  126.8   0.15706
61S ..... 1      0.39773 /_  -16.1    0.1656     4.160        1-2    0.74912 /_   12.0   0.18008
   -      2       0.4397 /_ -142.9   0.18307     4.160        2-3    0.75201 /_ -115.9   0.18077
   -      3      0.41189 /_   93.1   0.17149     4.160        3-1    0.65988 /_  127.8   0.15862
610 ..... 1     0.045957 /_  -17.8   0.16583     0.480        1-2   0.086437 /_   12.0   0.18008
   -      2     0.051858 /_ -141.9   0.18713     0.480        2-3    0.08677 /_ -115.9   0.18077
   -      3     0.046165 /_   93.6   0.16658     0.480        3-1    0.07614 /_  127.8   0.15862
